STAAD SPACE DXF IMPORT OF EXPANSION JOINT LEFT.DXF
START JOB INFORMATION
ENGINEER DATE 14-Feb-20
END JOB INFORMATION
SET Z UP
INPUT WIDTH 79
UNIT METER KN
JOINT COORDINATES
1 -1.532e-013 153.95 0; 2 -1.532e-013 -153.95 0; 3 -152.65 -153.95 0;
4 152.65 -153.95 0; 5 -152.65 153.95 0; 6 152.65 153.95 0; 7 77190.1 73417.8 0;
8 93249.2 55582.3 0; 9 76197.1 67134.2 0; 10 83543.1 73748.6 0;
11 80914.3 76668.1 0; 12 96925.7 58885.7 0; 13 86152.7 70850.3 0;
14 78806.7 64236 0; 15 89576.2 52275.2 0; 16 81550.1 61189.1 0;
17 88981.6 67880.4 0; 18 73568.3 70053.8 0; 20 91551.9 64853.9 0;
21 84205.9 58239.6 0; 22 73800.9 65140.2 0; 23 64140.2 56441.7 0;
24 76318.4 42916.4 0; 25 85979 51615 0; 26 67171.5 59171.1 0;
27 79349.7 45645.9 0; 29 70017.4 61733.6 0; 30 72259.2 63752 0;
31 84437.3 50226.8 0; 32 83837.8 53993.1 0; 33 74177.1 45294.6 0;
34 80492.1 57708.8 0; 35 70831.4 49010.3 0; 36 77146.5 61424.5 0;
37 67485.8 52726 0; 38 81891 56155.2 0; 39 86215 31936.1 0; 40 86215 32090.1 0;
41 96215 32090.1 0; 42 106872 67848.6 0; 43 100638 62235.2 0;
44 89931.9 74125.5 0; 45 96561.4 80094.8 0; 46 106872 68643.4 0;
47 99338.3 77010.7 0; 48 92708.8 71041.4 0; 49 101981 74075.3 0;
50 95351.8 68106 0; 51 104624 71139.9 0; 52 97994.9 65170.6 0;
53 104523 65733 0; 54 93816.6 77623.3 0; 55 102872 60332.5 0;
56 106756 60332.5 0; 57 94251.8 52570.6 0; 58 94251.8 51617.3 0;
59 106872 60332.5 0; 60 98731.2 32417.4 0; 61 104131 32417.4 0;
62 104131 45917.4 0; 63 96215 35507.8 0; 64 104131 35507.8 0;
# ... 209 like lines cut
MEMBER INCIDENCES
1 1 2; 2 3 2; 3 5 1; 6 11 10; 8 15 254; 10 11 18; 14 23 37; 15 24 27; 19 22 36;
23 21 38; 25 40 92; 26 15 8; 27 43 52; 28 44 54; 29 45 47; 34 55 56; 35 55 109;
36 57 58; 37 46 42; 38 60 61; 39 61 64; 46 72 74; 47 74 78; 48 75 119;
51 80 75; 52 80 87; 53 73 90; 57 80 117; 65 98 99; 66 98 100; 67 101 102;
68 102 103; 69 103 104; 73 43 109; 76 112 104; 85 123 124; 87 22 125;
88 23 126; 90 25 170; 91 26 129; 92 27 171; 93 131 86; 94 29 132; 95 30 133;
96 31 172; 97 34 135; 98 35 136; 99 36 137; 100 37 138; 101 125 133;
102 126 138; 103 127 130; 104 129 377; 105 131 380; 106 133 383; 107 125 137;
108 135 382; 109 137 383; 110 139 128; 111 32 139; 112 140 127; 113 33 140;
114 139 381; 115 8 384; 116 43 53; 117 53 42; 119 42 141; 120 43 142;
121 44 143; 122 45 144; 124 47 146; 125 48 147; 126 49 148; 127 50 149;
128 51 150; 129 52 151; 130 53 152; 131 54 153; 132 142 151; 133 143 153;
134 144 146; 135 146 385; 136 148 386; 137 150 387; 138 152 387; 139 145 141;
140 142 152; 141 152 141; 142 7 154; 143 8 155; 144 9 156; 145 10 157;
146 11 158; 147 12 159; 148 13 160; 149 14 161; 150 15 162; 151 16 163;
152 17 164; 153 18 165; 155 20 167; 156 21 168; 161 38 173; 162 39 174;
163 40 175; 164 41 176; 168 60 180; 169 61 181; 170 62 182; 171 63 183;
172 64 184; 173 65 185; 175 67 187; 176 68 188; 177 69 189; 179 71 191;
180 72 192; 182 74 194; 183 75 195; 184 76 196; 185 77 197; 186 78 198;
187 79 199; 188 80 200; 191 83 203; 192 84 204; 193 85 205; 195 87 207;
# ... 120 like lines cut
ELEMENT INCIDENCES SHELL
681 125 126 140 139; 682 127 128 139 140; 684 176 183 185 175;
685 165 162 159 158; 686 143 142 141 145; 687 143 144 145; 688 145 141 142 143;
689 141 142 229 177; 690 141 261 177; 691 142 229 228 155; 841 170 200 201 171;
842 171 185 175 169; 843 201 202 193 185; 844 193 217 258 185;
845 195 194 192 191;
DEFINE MATERIAL START
ISOTROPIC CONCRETE
E 21.7184
POISSON 0.17
DENSITY 2.35615e-008
ALPHA 5.5e-006
DAMP 0.05
TYPE CONCRETE
STRENGTH FCU 0.0275789
END DEFINE MATERIAL
MEMBER PROPERTY AMERICAN
1 TO 3 6 8 10 14 15 19 23 25 TO 29 34 TO 39 46 TO 48 51 TO 53 57 65 TO 69 -
73 76 85 93 101 TO 110 112 114 TO 117 132 TO 141 235 TO 241 243 TO 291 293 -
294 TO 298 300 303 TO 308 313 315 TO 321 325 TO 333 335 TO 339 341 TO 347 -
356 TO 358 360 692 TO 729 733 TO 834 836 TO 839 969 TO 1136 1138 TO 1139 -
1140 PRIS YD 450 ZD 300
CONSTANTS
MATERIAL CONCRETE MEMB 1 TO 3 6 8 10 14 15 19 23 25 TO 29 34 TO 39 46 TO 48 -
51 TO 53 57 65 TO 69 73 76 85 93 101 TO 110 112 114 TO 117 132 TO 141 235 -
236 TO 241 243 TO 291 293 TO 298 300 303 TO 308 313 315 TO 321 325 TO 333 -
335 TO 339 341 TO 347 356 TO 358 360 692 TO 729 733 TO 834 836 TO 839 969 -
970 TO 1136 1138 TO 1140
SUPPORTS
262 TO 374 FIXED
LOAD 1 LOADTYPE Dead  TITLE WALL LOAD
MEMBER LOAD
87 91 95 101 TO 103 107 112 114 132 TO 134 139 TO 141 161 237 239 241 244 -
245 TO 248 251 TO 257 259 TO 263 265 270 278 TO 282 294 300 303 304 307 308 -
313 327 337 338 343 345 346 360 733 TO 737 750 751 758 TO 760 762 TO 768 -
782 784 TO 788 791 796 TO 798 805 TO 807 809 TO 811 813 814 820 821 823 827 -
836 TO 838 850 877 921 TO 923 941 976 981 983 TO 985 987 989 TO 991 -
994 TO 1000 1002 TO 1006 1008 1013 1021 1022 1036 1041 TO 1043 1046 TO 1048 -
1051 1054 1055 1059 1061 1062 1066 1087 1089 TO 1093 1095 1096 1101 TO 1103 -
1110 TO 1112 1114 TO 1116 1118 1119 1125 1126 1132 1138 TO 1139 -
1140 UNI GZ -28.35
192 228 258 268 269 271 274 295 326 328 738 739 741 793 794 803 804 815 816 -
826 833 834 904 942 1001 1011 1012 1014 1017 1037 1050 1052 1098 1099 1108 -
1109 1120 1121 1131 1135 1136 UNI GZ -17.01
103 110 244 738 740 750 793 794 850 874 875 887 891 892 911 976 TO 978 981 -
985 987 TO 990 994 TO 996 998 1042 1046 TO 1048 1051 1087 1089 TO 1092 1096 -
1098 TO 1103 1107 1128 1132 1139 1140 UNI GZ -5.315
101 TO 103 107 110 112 730 TO 740 750 751 840 UNI GZ -17.01
FINISH
